Circuit: * C:\Users\Guido\Documents\GitHub\LaboDeMicrosTPF\Spice\Draft1.asc

