Circuit: * C:\Users\Guido\Documents\GitHub\LaboDeMicrosTPF\Spice\filtros.asc

WARNING: Less than two connections to node VCC.  This node is used by V1.
WARNING: Less than two connections to node VEE.  This node is used by V2.
Direct Newton iteration for .op point succeeded.

Date: Mon Feb 08 12:13:55 2021
Total elapsed time: 0.051 seconds.

tnom = 27
temp = 27
method = trap
totiter = 13
traniter = 0
tranpoints = 0
accept = 0
rejected = 0
matrix size = 36
fillins = 57
solver = Normal
Matrix Compiler1:     267 opcodes
Matrix Compiler2: 3.72 KB object code size
